/*--------------------------------*- C++ -*----------------------------------*\
  =========                 |
  \\      /  F ield         | OpenFOAM: The Open Source CFD Toolbox
   \\    /   O peration     | Website:  https://openfoam.org
    \\  /    A nd           | Version:  10
     \\/     M anipulation  |
\*---------------------------------------------------------------------------*/
FoamFile
{
    format      ascii;
    class       polyBoundaryMesh;
    location    "constant/polyMesh";
    object      boundary;
}
// * * * * * * * * * * * * * * * * * * * * * * * * * * * * * * * * * * * * * //

6
(
    back
    {
        type            empty;
        physicalType    empty;
        nFaces          197893;
        startFace       306908;
    }
    front
    {
        type            empty;
        physicalType    empty;
        nFaces          197893;
        startFace       504801;
    }
    outlet
    {
        type            patch;
        physicalType    patch;
        nFaces          86;
        startFace       702694;
    }
    circle
    {
        type            wall;
        physicalType    wall;
        nFaces          562;
        startFace       702780;
    }
    walls
    {
        type            wall;
        physicalType    wall;
        nFaces          160;
        startFace       703342;
    }
    inlet
    {
        type            patch;
        physicalType    patch;
        nFaces          55;
        startFace       703502;
    }
)

// ************************************************************************* //
