/*--------------------------------*- C++ -*----------------------------------*\
  =========                 |
  \\      /  F ield         | OpenFOAM: The Open Source CFD Toolbox
   \\    /   O peration     | Website:  https://openfoam.org
    \\  /    A nd           | Version:  10
     \\/     M anipulation  |
\*---------------------------------------------------------------------------*/
FoamFile
{
    format      ascii;
    class       polyBoundaryMesh;
    location    "constant/polyMesh";
    object      boundary;
}
// * * * * * * * * * * * * * * * * * * * * * * * * * * * * * * * * * * * * * //

6
(
    back
    {
        type            empty;
        physicalType    empty;
        nFaces          106226;
        startFace       172225;
    }
    front
    {
        type            empty;
        physicalType    empty;
        nFaces          106226;
        startFace       278451;
    }
    outlet
    {
        type            patch;
        physicalType    patch;
        nFaces          74;
        startFace       384677;
    }
    circle
    {
        type            wall;
        physicalType    wall;
        nFaces          409;
        startFace       384751;
    }
    walls
    {
        type            wall;
        physicalType    wall;
        nFaces          108;
        startFace       385160;
    }
    inlet
    {
        type            patch;
        physicalType    patch;
        nFaces          37;
        startFace       385268;
    }
)

// ************************************************************************* //
